a new warehome.
it is for study.
new line.
<<<<<<< HEAD


is lines;
nnn ew 
>>>>>>> be6327aeb8187e7b6e4b19a3710ad056673a0f25
