a new warehome.
it is for study.
<<<<<<< HEAD
new line;
ssss
=======
new line.
>>>>>>> 4f357a3f3e1435f538f6fe4f29d6a6b4dc13dce9
