a new warehome.
it is for study.
new line.
nnn ew 
